-------------------------------------------------------
          Amber 10 SANDER                              2008
          -------------------------------------------------------

  [-O]verwriting output

File Assignments:

 Here is the input file:

 short md, nve ensemble
 &cntrl
   ntx=7, irest=1,
   ntc=2, ntf=2, tol=0.0000001,
   nstlim=1000,
   ntpr=100, ntwr=10000,
   dt=0.001, vlimit=10.0,
   cut=9.,
   ntt=0, temp0=300.,
 /
 &ewald
  a=62.23, b=62.23, c=62.23,
  nfft1=64,nfft2=64,nfft3=64,
  skinnb=2.,
 /

--------------------------------------------------------------------------------
   1.  RESOURCE   USE:
--------------------------------------------------------------------------------

 getting new box info from bottom of inpcrd

 NATOM  =   23558 NTYPES =      16 NBONH =   22290 MBONA  =    1302
 NTHETH =    2789 MTHETA =    1772 NPHIH =    5026 MPHIA  =    3140
 NHPARM =       0 NPARM  =       0 NNB   =   41859 NRES   =    7182
 NBONA  =    1302 NTHETA =    1772 NPHIA =    3140 NUMBND =      45
 NUMANG =      91 NPTRA  =      33 NATYP =      31 NPHB   =       1
 IFBOX  =       1 NMXRS  =      25 IFCAP =       0 NEXTRA =       0
 NCOPY  =       0

     BOX TYPE: RECTILINEAR

--------------------------------------------------------------------------------
   2.  CONTROL  DATA  FOR  THE  RUN
--------------------------------------------------------------------------------

General flags:
     imin    =       0, nmropt  =       0

Nature and format of input:
     ntx     =       7, irest   =       1, ntrx    =       1

Nature and format of output:
     ntxo    =       1, ntpr    =     100, ntrx    =       1, ntwr    =   10000
     iwrap   =       0, ntwx    =       0, ntwv    =       0, ntwe    =       0
     ioutfm  =       0, ntwprt  =       0, idecomp =       0, rbornstat=      0

Potential function:
     ntf     =       2, ntb     =       1, igb     =       0, nsnb    =      25
     ipol    =       0, gbsa    =       0, iesp    =       0
     dielc   =   1.00000, cut     =   9.00000, intdiel =   1.00000

Frozen or restrained atoms:
     ibelly  =       0, ntr     =       0

Molecular dynamics:
     nstlim  =      1000, nscm    =      1000, nrespa  =         1
     t       =   0.00000, dt      =   0.00100, vlimit  =  10.00000

SHAKE:
     ntc     =       2, jfastw  =       0
     tol     =   0.00000

Ewald parameters:
     verbose =       0, ew_type =       0, nbflag  =       1, use_pme =       1
     vdwmeth =       1, eedmeth =       1, netfrc  =       1
     Box X =   62.230   Box Y =   62.230   Box Z =   62.230
     Alpha =   90.000   Beta  =   90.000   Gamma =   90.000
     NFFT1 =   64       NFFT2 =   64       NFFT3 =   64
     Cutoff=    9.000   Tol   =0.100E-04
     Ewald Coefficient =  0.30768
     Interpolation order =    4

--------------------------------------------------------------------------------
   3.  ATOMIC COORDINATES AND VELOCITIES
--------------------------------------------------------------------------------

 begin time read from input coords =     6.000 ps

 Number of triangulated 3-point waters found:     7023

     Sum of charges from parm topology file = -11.00000006
     Assuming uniform neutralizing plasma

--------------------------------------------------------------------------------
   4.  RESULTS
 NSTEP =      100   TIME(PS) =       6.100  TEMP(K) =   292.63  PRESS =     0.0
 Etot   =    -58173.3795  EKtot   =     14067.2903  EPtot      =    -72240.6698
 BOND   =       427.9066  ANGLE   =      1142.2501  DIHED      =       986.0039
 1-4 NB =       546.5652  1-4 EEL =      6603.1603  VDWAALS    =      8463.2074
 EELEC  =    -90409.7633  EHBOND  =         0.0000  RESTRAINT  =         0.0000
 Ewald error estimate:   0.1241E-04
 ------------------------------------------------------------------------------

      A V E R A G E S   O V E R    1000 S T E P S

 NSTEP =     1000   TIME(PS) =       7.000  TEMP(K) =   295.86  PRESS =     0.0
 Etot   =    -58173.3205  EKtot   =     14222.1981  EPtot      =    -72395.5186
 BOND   =       422.5720  ANGLE   =      1166.0210  DIHED      =       976.6690
 1-4 NB =       545.5258  1-4 EEL =      6586.2408  VDWAALS    =      8366.0272
 EELEC  =    -90458.5743  EHBOND  =         0.0000  RESTRAINT  =         0.0000
 Ewald error estimate:   0.9186E-04
 ------------------------------------------------------------------------------

      R M S  F L U C T U A T I O N S

 NSTEP =     1000   TIME(PS) =       7.000  TEMP(K) =     1.59  PRESS =     0.0
 Etot   =         0.5830  EKtot   =        76.2728  EPtot      =        76.5418
 BOND   =        17.2023  ANGLE   =        24.2996  DIHED      =        10.8246
 1-4 NB =        11.0926  1-4 EEL =        30.5865  VDWAALS    =       105.8489
 EELEC  =       154.1914  EHBOND  =         0.0000  RESTRAINT  =         0.0000
 Ewald error estimate:   0.5957E-04
 ------------------------------------------------------------------------------
