-------------------------------------------------------
          Amber 12 SANDER                              2012
          -------------------------------------------------------

  [-O]verwriting output

File Assignments:

 Here is the input file:

 Typical Production MD NVE with
 GOOD energy conservation.
 &cntrl
   ntx=5, irest=1,
   ntc=2, ntf=2, tol=0.000001,
   nstlim=10000,
   ntpr=1000, ntwx=1000,
   ntwr=10000,
   dt=0.002, cut=8.,
   ntt=0, ntb=1, ntp=0,
   ioutfm=1,
 /
 &ewald
  dsum_tol=0.000001,
 /

--------------------------------------------------------------------------------
   1.  RESOURCE   USE:
--------------------------------------------------------------------------------

 getting new box info from bottom of inpcrd

 NATOM  =   23558 NTYPES =      16 NBONH =   22290 MBONA  =    1302
 NTHETH =    9812 MTHETA =    1772 NPHIH =    5450 MPHIA  =    4397
 NHPARM =       0 NPARM  =       0 NNB   =   41859 NRES   =    7182
 NBONA  =    1302 NTHETA =    1772 NPHIA =    4397 NUMBND =      45
 NUMANG =      92 NPTRA  =      43 NATYP =      31 NPHB   =       1
 IFBOX  =       1 NMXRS  =      25 IFCAP =       0 NEXTRA =       0
 NCOPY  =       0

     BOX TYPE: RECTILINEAR

--------------------------------------------------------------------------------
   2.  CONTROL  DATA  FOR  THE  RUN
--------------------------------------------------------------------------------

General flags:
     imin    =       0, nmropt  =       0

Nature and format of input:
     ntx     =       5, irest   =       1, ntrx    =       1

Nature and format of output:
     ntxo    =       1, ntpr    =    1000, ntrx    =       1, ntwr    =   10000
     iwrap   =       0, ntwx    =    1000, ntwv    =       0, ntwe    =       0
     ioutfm  =       1, ntwprt  =       0, idecomp =       0, rbornstat=      0

Potential function:
     ntf     =       2, ntb     =       1, igb     =       0, nsnb    =      25
     ipol    =       0, gbsa    =       0, iesp    =       0
     dielc   =   1.00000, cut     =   8.00000, intdiel =   1.00000

Frozen or restrained atoms:
     ibelly  =       0, ntr     =       0

Molecular dynamics:
     nstlim  =     10000, nscm    =      1000, nrespa  =         1
     t       =   0.00000, dt      =   0.00200, vlimit  =  -1.00000

SHAKE:
     ntc     =       2, jfastw  =       0
     tol     =   0.00000

Ewald parameters:
     verbose =       0, ew_type =       0, nbflag  =       1, use_pme =       1
     vdwmeth =       1, eedmeth =       1, netfrc  =       1
     Box X =   62.230   Box Y =   62.230   Box Z =   62.230
     Alpha =   90.000   Beta  =   90.000   Gamma =   90.000
     NFFT1 =   64       NFFT2 =   64       NFFT3 =   64
     Cutoff=    8.000   Tol   =0.100E-05
     Ewald Coefficient =  0.39467
     Interpolation order =    4

--------------------------------------------------------------------------------
   3.  ATOMIC COORDINATES AND VELOCITIES
--------------------------------------------------------------------------------

 begin time read from input coords =     6.000 ps

 Number of triangulated 3-point waters found:     7023

     Sum of charges from parm topology file = -11.00000006
     Assuming uniform neutralizing plasma

--------------------------------------------------------------------------------
   4.  RESULTS
 NSTEP =     1000   TIME(PS) =       8.000  TEMP(K) =   296.91  PRESS =     0.0
 Etot   =    -57338.1701  EKtot   =     14272.9746  EPtot      =    -71611.1447
 BOND   =       412.3036  ANGLE   =      1247.6256  DIHED      =      1680.4206
 1-4 NB =       570.3982  1-4 EEL =      6632.2616  VDWAALS    =      8269.0009
 EELEC  =    -90423.1552  EHBOND  =         0.0000  RESTRAINT  =         0.0000
 ------------------------------------------------------------------------------

      A V E R A G E S   O V E R      10 S T E P S

 NSTEP =    10000   TIME(PS) =      26.000  TEMP(K) =   297.06  PRESS =     0.0
 Etot   =    -57339.8596  EKtot   =     14279.9873  EPtot      =    -71619.8469
 BOND   =       463.5447  ANGLE   =      1251.8520  DIHED      =      1667.1029
 1-4 NB =       561.4388  1-4 EEL =      6621.6527  VDWAALS    =      8440.9286
 EELEC  =    -90626.3667  EHBOND  =         0.0000  RESTRAINT  =         0.0000
 ------------------------------------------------------------------------------

      R M S  F L U C T U A T I O N S

 NSTEP =    10000   TIME(PS) =      26.000  TEMP(K) =     1.57  PRESS =     0.0
 Etot   =         1.5631  EKtot   =        75.5797  EPtot      =        75.9369
 BOND   =        20.4538  ANGLE   =        19.4905  DIHED      =        11.4589
 1-4 NB =        11.9103  1-4 EEL =        29.5857  VDWAALS    =       108.8655
 EELEC  =       132.9206  EHBOND  =         0.0000  RESTRAINT  =         0.0000
 ------------------------------------------------------------------------------
